.MODEL BJT1 NPN(BF=200 CJC=20pf CJE=20pf IS=1E16)
